Version 4.1
SHEET 1 1772 1016
WIRE 128 96 128 48
WIRE 16 240 -112 240
WIRE 128 240 128 176
WIRE 128 240 16 240
WIRE 304 240 128 240
WIRE 432 240 304 240
WIRE 128 272 128 240
WIRE 960 304 960 272
WIRE 1136 304 960 304
WIRE 432 320 432 240
WIRE -112 336 -112 240
WIRE 640 336 624 336
WIRE -304 352 -352 352
WIRE 16 352 16 240
WIRE 304 352 304 240
WIRE -624 368 -864 368
WIRE -544 368 -624 368
WIRE -416 368 -480 368
WIRE -384 368 -416 368
WIRE 720 368 672 368
WIRE 848 368 784 368
WIRE -384 384 -384 368
WIRE 848 384 848 368
WIRE 960 384 960 304
WIRE 960 384 848 384
WIRE 544 400 544 336
WIRE 544 400 480 400
WIRE -224 416 -224 352
WIRE -160 416 -224 416
WIRE 320 416 304 416
WIRE 672 416 672 368
WIRE 672 416 592 416
WIRE 592 432 592 416
WIRE -624 448 -624 368
WIRE -576 448 -624 448
WIRE -416 448 -416 368
WIRE -416 448 -432 448
WIRE 672 448 672 416
WIRE 688 448 672 448
WIRE 848 448 848 384
WIRE 848 448 832 448
WIRE -576 480 -752 480
WIRE -352 480 -352 352
WIRE -352 480 -432 480
WIRE 640 480 640 336
WIRE 688 480 640 480
WIRE 1024 480 832 480
WIRE -576 512 -656 512
WIRE -384 512 -384 448
WIRE -384 512 -432 512
WIRE -112 512 -112 432
WIRE -112 512 -384 512
WIRE -32 512 -112 512
WIRE 16 512 16 416
WIRE 16 512 -32 512
WIRE 64 512 16 512
WIRE 192 512 144 512
WIRE 320 512 320 416
WIRE 320 512 272 512
WIRE 352 512 320 512
WIRE 400 512 352 512
WIRE 432 512 432 416
WIRE 432 512 400 512
WIRE 464 512 432 512
WIRE 592 512 592 496
WIRE 592 512 464 512
WIRE 688 512 592 512
WIRE 896 512 832 512
WIRE 1024 512 1024 480
WIRE -752 544 -752 480
WIRE -576 544 -608 544
WIRE -336 544 -432 544
WIRE 688 544 672 544
WIRE 864 544 832 544
WIRE -608 592 -608 544
WIRE -112 592 -112 512
WIRE 464 592 464 512
WIRE 864 592 864 544
WIRE 16 608 16 512
WIRE 352 608 352 512
WIRE -336 672 -336 544
WIRE -288 672 -336 672
WIRE -160 672 -208 672
WIRE 560 672 512 672
WIRE 672 672 672 544
WIRE 672 672 640 672
WIRE -112 704 -112 688
WIRE 16 704 16 672
WIRE 16 704 -112 704
WIRE 128 704 16 704
WIRE 352 704 352 672
WIRE 352 704 128 704
WIRE 464 704 464 688
WIRE 464 704 352 704
WIRE 896 704 896 512
WIRE 1136 704 1136 304
WIRE 1136 704 896 704
WIRE 128 768 128 704
WIRE -864 800 -864 368
WIRE -656 800 -656 512
WIRE -656 800 -864 800
WIRE 128 928 128 848
FLAG 128 -32 0
FLAG 128 928 0
FLAG -32 512 OUTA
FLAG 400 512 OUTB
FLAG -608 592 0
FLAG 864 592 0
FLAG 960 192 0
FLAG -864 288 0
FLAG 1024 592 0
FLAG -752 624 0
FLAG 128 336 0
DATAFLAG 592 512 ""
DATAFLAG 592 512 ""
DATAFLAG 592 512 ""
DATAFLAG 592 512 ""
SYMBOL voltage 128 64 R180
WINDOW 0 24 96 Left 2
WINDOW 3 24 16 Left 2
WINDOW 123 0 0 Left 0
WINDOW 39 0 0 Left 0
SYMATTR InstName V1
SYMATTR Value 12
SYMBOL nmos -160 592 R0
SYMATTR InstName M3
SYMBOL nmos 512 592 M0
SYMATTR InstName M4
SYMBOL zener 32 416 R180
WINDOW 0 24 64 Left 2
WINDOW 3 -96 2 Left 2
SYMATTR InstName D1
SYMATTR Value 1N5819
SYMBOL zener 320 416 R180
WINDOW 0 24 64 Left 2
WINDOW 3 24 36 Left 2
SYMATTR InstName D2
SYMATTR Value 1N5819
SYMBOL zener 32 672 R180
WINDOW 0 24 64 Left 2
WINDOW 3 -98 28 Left 2
SYMATTR InstName D3
SYMATTR Value 1N5819
SYMBOL zener 368 672 R180
WINDOW 0 24 64 Left 2
WINDOW 3 49 16 Left 2
SYMATTR InstName D4
SYMATTR Value 1N5819
SYMBOL res 160 496 R90
WINDOW 0 0 56 VBottom 2
WINDOW 3 32 56 VTop 2
SYMATTR InstName R1
SYMATTR Value 1.8
SYMBOL ind 176 528 R270
WINDOW 0 32 56 VTop 2
WINDOW 3 5 56 VBottom 2
SYMATTR InstName L1
SYMATTR Value 1m
SYMBOL res 112 752 R0
SYMATTR InstName R2
SYMATTR Value 0.05
SYMBOL res 112 80 R0
SYMATTR InstName R_supply
SYMATTR Value 0.05
SYMBOL lib\\sym\\ir2104 800 464 M0
SYMATTR InstName X1
SYMATTR Prefix X
SYMBOL lib\\sym\\ir2104 -544 464 R0
SYMATTR InstName X2
SYMATTR Prefix X
SYMBOL res -208 336 R90
WINDOW 0 0 56 VBottom 2
WINDOW 3 32 56 VTop 2
SYMATTR InstName R3
SYMATTR Value 4.7
SYMBOL res -192 656 R90
WINDOW 0 0 56 VBottom 2
WINDOW 3 32 56 VTop 2
SYMATTR InstName R4
SYMATTR Value 4.7
SYMBOL res 640 320 R90
WINDOW 0 0 56 VBottom 2
WINDOW 3 32 56 VTop 2
SYMATTR InstName R5
SYMATTR Value 4.7
SYMBOL res 656 656 R90
WINDOW 0 0 56 VBottom 2
WINDOW 3 32 56 VTop 2
SYMATTR InstName R6
SYMATTR Value 4.7
SYMBOL cap -400 384 R0
SYMATTR InstName C1
SYMATTR Value 1µ
SYMBOL cap 576 432 R0
SYMATTR InstName C2
SYMATTR Value 1µ
SYMBOL voltage 960 288 R180
WINDOW 0 24 96 Left 2
WINDOW 3 24 16 Left 2
WINDOW 123 0 0 Left 0
WINDOW 39 0 0 Left 0
SYMATTR InstName V2
SYMATTR Value 12
SYMBOL diode 784 352 R90
WINDOW 0 0 32 VBottom 2
WINDOW 3 32 32 VTop 2
SYMATTR InstName D5
SYMATTR Value 1N5819
SYMBOL voltage -864 384 R180
WINDOW 0 24 96 Left 2
WINDOW 3 24 16 Left 2
WINDOW 123 0 0 Left 0
WINDOW 39 0 0 Left 0
SYMATTR InstName V3
SYMATTR Value 12
SYMBOL diode -544 384 R270
WINDOW 0 32 32 VTop 2
WINDOW 3 0 32 VBottom 2
SYMATTR InstName D6
SYMATTR Value 1N5819
SYMBOL voltage -752 528 R0
WINDOW 123 0 0 Left 0
WINDOW 39 0 0 Left 0
SYMATTR InstName V4
SYMATTR Value PULSE(0 5 0 100n 100n 22.5u 50u)
SYMBOL voltage 1024 496 R0
WINDOW 123 0 0 Left 0
WINDOW 39 0 0 Left 0
SYMATTR InstName V5
SYMATTR Value PULSE(0 5 25u 100n 100n 22.5u 50u)
SYMBOL nmos -160 336 R0
SYMATTR InstName M1
SYMBOL nmos 480 320 M0
SYMATTR InstName M2
SYMBOL polcap 112 272 R0
SYMATTR InstName C3
SYMATTR Value 220µ
SYMATTR SpiceLine V=50
TEXT -432 952 Left 2 !.tran 0 100u 0 100n
TEXT 280 912 Left 2 !.measure TRAN VDIFF_avg AVG V(OUTA,OUTB) FROM=5m TO=10m
TEXT 272 1000 Left 2 !.include "C:\\Users\\sanjit\\Documents\\LTspice\\IR2104.sub"
